<?xml version="1.0" encoding="UTF-8"?>

<!-- generated on 2025-11-19T14:25:06.162338+01:00 by Eclipse SUMO netedit 1.25.0
<neteditConfiguration xmlns:xsi="http://www.w3.org/2001/XMLSchema-instance" xsi:noNamespaceSchemaLocation="http://sumo.dlr.de/xsd/neteditConfiguration.xsd">

    <input>
        <sumocfg-file value="C:\Users\DELL\Sumo\2025-11-17-15-32-40\demo.sumocfg"/>
        <additional-files value="C:\Users\DELL\Sumo\2025-11-17-15-32-40\demo.add.xml"/>
        <route-files value="C:\Users\DELL\Sumo\2025-11-17-15-32-40\demo.rou.xml"/>
        <sumo-net-file value="C:\Users\DELL\Sumo\2025-11-17-15-32-40\demo.net.xml"/>
    </input>

    <output>
        <output-file value="C:\Users\DELL\Sumo\2025-11-17-15-32-40\demo.net.xml"/>
    </output>

    <processing>
        <geometry.min-radius.fix.railways value="false"/>
        <geometry.avoid-overlap value="false"/>
        <geometry.max-grade.fix value="false"/>
        <offset.disable-normalization value="true"/>
        <lefthand value="0"/>
    </processing>

    <junctions>
        <no-turnarounds value="true"/>
        <junctions.corner-detail value="5"/>
        <junctions.limit-turn-speed value="5.50"/>
        <rectangular-lane-cut value="0"/>
    </junctions>

    <pedestrian>
        <walkingareas value="0"/>
    </pedestrian>

</neteditConfiguration>
-->

<net version="1.20" junctionCornerDetail="5" limitTurnSpeed="5.50" avoidOverlap="0" xmlns:xsi="http://www.w3.org/2001/XMLSchema-instance" xsi:noNamespaceSchemaLocation="http://sumo.dlr.de/xsd/net_file.xsd">

    <location netOffset="0.00,0.00" convBoundary="-252.45,-158.61,1392.53,161.30" origBoundary="-10000000000.00,-10000000000.00,10000000000.00,10000000000.00" projParameter="!"/>

    <edge id=":J0_0" function="internal">
        <lane id=":J0_0_0" index="0" speed="6.58" length="9.01" shape="-53.74,13.74 -53.34,16.21 -52.28,17.99 -50.56,19.07 -48.19,19.44"/>
        <lane id=":J0_0_1" index="1" speed="8.06" length="14.05" shape="-56.94,13.82 -56.31,17.65 -54.65,20.40 -51.95,22.06 -48.22,22.64"/>
    </edge>
    <edge id=":J0_2" function="internal">
        <lane id=":J0_2_0" index="0" speed="13.89" length="20.14" shape="-68.20,18.58 -48.19,19.44"/>
        <lane id=":J0_2_1" index="1" speed="13.89" length="20.14" shape="-68.45,21.77 -48.22,22.64"/>
    </edge>
    <edge id=":J0_4" function="internal">
        <lane id=":J0_4_0" index="0" speed="9.99" length="19.34" shape="-63.92,27.77 -62.29,24.08 -59.12,21.46 -54.42,19.92 -48.19,19.44"/>
        <lane id=":J0_4_1" index="1" speed="8.83" length="14.93" shape="-60.79,28.41 -59.55,25.85 -57.04,24.03 -53.26,22.96 -48.22,22.64"/>
    </edge>
    <edge id=":J1_0" function="internal">
        <lane id=":J1_0_0" index="0" speed="6.44" length="9.03" shape="55.55,14.71 55.83,17.18 56.84,18.94 58.57,20.00 61.04,20.35"/>
        <lane id=":J1_0_1" index="1" speed="7.95" length="14.31" shape="52.35,14.61 52.80,18.52 54.39,21.32 57.14,22.99 61.04,23.55"/>
    </edge>
    <edge id=":J1_2" function="internal">
        <lane id=":J1_2_0" index="0" speed="13.89" length="14.44" shape="46.62,20.32 61.04,20.35"/>
        <lane id=":J1_2_1" index="1" speed="13.89" length="14.44" shape="46.59,23.52 61.04,23.55"/>
    </edge>
    <edge id=":J10_0" function="internal">
        <lane id=":J10_0_0" index="0" speed="6.50" length="9.03" shape="247.44,-53.74 247.08,-56.19 246.02,-57.94 244.27,-58.98 241.81,-59.31"/>
        <lane id=":J10_0_1" index="1" speed="7.32" length="11.73" shape="247.44,-53.74 247.07,-57.59 246.01,-60.34 244.25,-61.98 241.80,-62.51"/>
    </edge>
    <edge id=":J10_2" function="internal">
        <lane id=":J10_2_0" index="0" speed="10.68" length="18.70" shape="247.44,-53.74 247.84,-59.90 249.10,-64.68 251.21,-68.08 254.17,-70.10"/>
        <lane id=":J10_2_1" index="1" speed="9.57" length="14.89" shape="250.64,-53.75 250.92,-58.90 251.79,-62.85 253.27,-65.59 255.34,-67.12"/>
    </edge>
    <edge id=":J11_0" function="internal">
        <lane id=":J11_0_0" index="0" speed="13.89" length="28.40" shape="374.30,55.10 381.35,56.43 388.22,56.67 395.17,56.40 402.43,56.17"/>
        <lane id=":J11_0_1" index="1" speed="13.89" length="28.40" shape="374.30,55.10 381.35,56.93 388.22,58.27 395.17,59.10 402.43,59.37"/>
    </edge>
    <edge id=":J11_2" function="internal">
        <lane id=":J11_2_0" index="0" speed="13.89" length="28.30" shape="374.30,55.10 381.35,56.56 388.23,57.16 395.17,57.34 402.43,57.56"/>
        <lane id=":J11_2_1" index="1" speed="13.89" length="29.18" shape="373.43,58.18 380.61,59.66 387.79,60.30 395.03,60.52 402.42,60.76"/>
    </edge>
    <edge id=":J11_4" function="internal">
        <lane id=":J11_4_0" index="0" speed="13.89" length="29.28" shape="373.43,58.18 402.01,64.54"/>
    </edge>
    <edge id=":J12_0" function="internal">
        <lane id=":J12_0_0" index="0" speed="3.90" length="2.57" shape="-245.61,-58.31 -246.30,-58.21 -246.80,-57.91 -247.10,-57.41 -247.20,-56.71"/>
        <lane id=":J12_0_1" index="1" speed="6.08" length="7.71" shape="-245.62,-61.51 -247.71,-61.20 -249.20,-60.30 -250.10,-58.81 -250.40,-56.72"/>
    </edge>
    <edge id=":J13_0" function="internal">
        <lane id=":J13_0_0" index="0" speed="13.89" length="0.40" shape="674.03,71.89 674.09,71.89 674.13,71.89 674.17,71.89 674.23,71.88"/>
        <lane id=":J13_0_1" index="1" speed="13.89" length="0.40" shape="673.86,75.08 674.04,75.09 674.16,75.09 674.29,75.09 674.47,75.07"/>
    </edge>
    <edge id=":J14_0" function="internal">
        <lane id=":J14_0_0" index="0" speed="13.89" length="0.10" shape="671.63,55.16 671.77,55.16"/>
        <lane id=":J14_0_1" index="1" speed="13.89" length="0.10" shape="671.64,58.36 671.69,58.36"/>
    </edge>
    <edge id=":J15_0" function="internal">
        <lane id=":J15_0_0" index="0" speed="3.90" length="2.56" shape="-247.64,152.07 -247.54,152.77 -247.24,153.26 -246.75,153.57 -246.06,153.68"/>
        <lane id=":J15_0_1" index="1" speed="6.08" length="7.67" shape="-250.84,152.07 -250.55,154.14 -249.66,155.64 -248.18,156.55 -246.11,156.88"/>
    </edge>
    <edge id=":J16_0" function="internal">
        <lane id=":J16_0_0" index="0" speed="3.90" length="2.57" shape="-69.14,156.40 -68.44,156.31 -67.94,156.02 -67.63,155.53 -67.52,154.84"/>
        <lane id=":J16_0_1" index="1" speed="6.08" length="7.71" shape="-69.19,159.60 -67.10,159.34 -65.59,158.46 -64.66,156.99 -64.32,154.90"/>
    </edge>
    <edge id=":J17_0" function="internal">
        <lane id=":J17_0_0" index="0" speed="6.61" length="8.97" shape="-247.45,60.13 -247.10,62.46 -246.05,64.18 -244.28,65.28 -241.82,65.75"/>
        <lane id=":J17_0_1" index="1" speed="7.42" length="11.54" shape="-247.45,60.13 -247.12,63.87 -246.10,66.58 -244.39,68.27 -242.00,68.95"/>
    </edge>
    <edge id=":J17_2" function="internal">
        <lane id=":J17_2_0" index="0" speed="13.89" length="13.97" shape="-247.45,60.13 -247.48,74.10"/>
        <lane id=":J17_2_1" index="1" speed="13.89" length="13.97" shape="-250.65,60.12 -250.68,74.09"/>
    </edge>
    <edge id=":J18_0" function="internal">
        <lane id=":J18_0_0" index="0" speed="13.89" length="72.93" shape="774.31,57.75 847.17,56.26"/>
        <lane id=":J18_0_1" index="1" speed="13.89" length="72.93" shape="774.22,60.95 847.20,59.46"/>
    </edge>
    <edge id=":J18_2" function="internal">
        <lane id=":J18_2_0" index="0" speed="13.89" length="72.96" shape="774.31,64.54 847.20,59.46"/>
        <lane id=":J18_2_1" index="1" speed="13.89" length="72.96" shape="774.54,67.73 847.23,62.66"/>
    </edge>
    <edge id=":J18_4" function="internal">
        <lane id=":J18_4_0" index="0" speed="13.89" length="25.35" shape="822.61,68.13 826.72,66.75 832.00,64.96 838.74,63.39 847.23,62.66"/>
    </edge>
    <edge id=":J19_0" function="internal">
        <lane id=":J19_0_0" index="0" speed="13.89" length="2.99" shape="996.39,54.92 996.68,54.91 996.88,54.87 997.07,54.78 997.31,54.62"/>
        <lane id=":J19_0_1" index="1" speed="7.14" length="2.99" shape="996.42,58.12 997.30,58.09 997.90,57.98 998.45,57.71 999.18,57.21"/>
        <lane id=":J19_0_2" index="2" speed="9.05" length="2.99" shape="996.45,61.32 997.91,61.27 998.92,61.09 999.84,60.64 1001.05,59.81"/>
    </edge>
    <edge id=":J20_0" function="internal">
        <lane id=":J20_0_0" index="0" speed="6.43" length="9.03" shape="-71.55,75.67 -69.07,75.46 -67.28,74.50 -66.19,72.79 -65.78,70.34"/>
        <lane id=":J20_0_1" index="1" speed="7.93" length="14.34" shape="-71.74,78.86 -67.80,78.53 -64.96,77.01 -63.22,74.30 -62.58,70.40"/>
    </edge>
    <edge id=":J20_2" function="internal">
        <lane id=":J20_2_0" index="0" speed="13.89" length="14.40" shape="-66.08,84.74 -65.78,70.34"/>
        <lane id=":J20_2_1" index="1" speed="13.89" length="14.40" shape="-62.88,84.81 -62.58,70.40"/>
    </edge>
    <edge id=":J21_0" function="internal">
        <lane id=":J21_0_0" index="0" speed="13.89" length="38.71" shape="364.05,-113.19 373.26,-115.55 384.79,-117.28 395.49,-118.54 402.19,-119.50"/>
    </edge>
    <edge id=":J21_1" function="internal">
        <lane id=":J21_1_0" index="0" speed="13.89" length="55.48" shape="365.22,-110.21 376.35,-112.59 392.51,-114.30 408.80,-115.34 420.32,-115.76"/>
        <lane id=":J21_1_1" index="1" speed="13.89" length="55.32" shape="365.22,-110.21 376.36,-112.09 392.54,-112.70 408.84,-112.64 420.37,-112.56"/>
    </edge>
    <edge id=":J21_3" function="internal">
        <lane id=":J21_3_0" index="0" speed="13.89" length="55.17" shape="365.22,-110.21 376.34,-111.70 392.46,-111.34 408.71,-110.07 420.17,-108.82"/>
        <lane id=":J21_3_1" index="1" speed="13.89" length="54.98" shape="365.22,-110.21 376.28,-111.21 392.27,-109.75 408.38,-107.39 419.78,-105.65"/>
    </edge>
    <edge id=":J22_0" function="internal">
        <lane id=":J22_0_0" index="0" speed="13.89" length="0.89" shape="644.26,-81.42 644.39,-81.41 644.48,-81.40 644.57,-81.41 644.70,-81.43"/>
        <lane id=":J22_0_1" index="1" speed="13.89" length="0.89" shape="643.87,-78.25 644.26,-78.20 644.53,-78.19 644.80,-78.21 645.19,-78.27"/>
    </edge>
    <edge id=":J23_0" function="internal">
        <lane id=":J23_0_0" index="0" speed="13.89" length="0.20" shape="645.18,-119.20 645.47,-119.19"/>
        <lane id=":J23_0_1" index="1" speed="13.89" length="0.20" shape="645.23,-116.00 645.32,-116.00"/>
    </edge>
    <edge id=":J24_0" function="internal">
        <lane id=":J24_0_0" index="0" speed="6.65" length="8.95" shape="-247.32,-0.22 -246.97,2.08 -245.91,3.79 -244.15,4.90 -241.67,5.41"/>
        <lane id=":J24_0_1" index="1" speed="7.45" length="11.48" shape="-247.32,-0.22 -246.99,3.48 -245.98,6.19 -244.29,7.90 -241.92,8.60"/>
    </edge>
    <edge id=":J24_2" function="internal">
        <lane id=":J24_2_0" index="0" speed="13.89" length="13.85" shape="-247.32,-0.22 -247.35,13.63"/>
        <lane id=":J24_2_1" index="1" speed="13.89" length="13.85" shape="-250.52,-0.23 -250.55,13.62"/>
    </edge>
    <edge id=":J25_0" function="internal">
        <lane id=":J25_0_0" index="0" speed="13.89" length="16.50" shape="787.71,-116.48 791.16,-115.68 794.60,-114.91 798.66,-114.31 803.98,-114.05"/>
    </edge>
    <edge id=":J25_1" function="internal">
        <lane id=":J25_1_0" index="0" speed="13.89" length="16.89" shape="787.24,-112.69 803.96,-110.85"/>
        <lane id=":J25_1_1" index="1" speed="13.89" length="16.89" shape="787.09,-109.49 803.94,-107.65"/>
    </edge>
    <edge id=":J25_3" function="internal">
        <lane id=":J25_3_0" index="0" speed="13.89" length="10.33" shape="795.61,-105.12 798.31,-106.36 799.76,-108.29 801.23,-110.08 803.96,-110.85"/>
        <lane id=":J25_3_1" index="1" speed="13.89" length="10.33" shape="796.11,-101.96 798.67,-103.17 800.00,-105.10 801.35,-106.88 803.94,-107.65"/>
    </edge>
    <edge id=":J26_0" function="internal">
        <lane id=":J26_0_0" index="0" speed="9.05" length="2.99" shape="1012.70,-112.60 1014.16,-112.56 1015.17,-112.37 1016.09,-111.93 1017.30,-111.10"/>
        <lane id=":J26_0_1" index="1" speed="7.14" length="2.99" shape="1012.67,-109.40 1013.55,-109.37 1014.16,-109.26 1014.71,-109.00 1015.44,-108.50"/>
        <lane id=":J26_0_2" index="2" speed="13.89" length="2.99" shape="1012.65,-106.20 1012.94,-106.19 1013.15,-106.15 1013.33,-106.07 1013.57,-105.90"/>
    </edge>
    <edge id=":J29_0" function="internal">
        <lane id=":J29_0_0" index="0" speed="13.20" length="13.10" shape="1117.82,-39.06 1120.37,-36.91 1122.13,-35.24 1124.08,-34.16 1127.20,-33.78"/>
        <lane id=":J29_0_1" index="1" speed="13.89" length="13.10" shape="1115.95,-36.46 1118.99,-33.98 1121.13,-32.13 1123.49,-30.98 1127.20,-30.58"/>
        <lane id=":J29_0_2" index="2" speed="13.89" length="13.10" shape="1114.09,-33.86 1117.62,-31.05 1120.13,-29.02 1122.90,-27.79 1127.20,-27.38"/>
    </edge>
    <edge id=":J29_3" function="internal">
        <lane id=":J29_3_0" index="0" speed="13.89" length="12.16" shape="1114.10,-29.51 1117.53,-31.87 1120.16,-33.15 1123.03,-33.68 1127.20,-33.78"/>
        <lane id=":J29_3_1" index="1" speed="13.74" length="12.16" shape="1115.97,-26.91 1118.91,-28.94 1121.16,-30.04 1123.62,-30.49 1127.20,-30.58"/>
        <lane id=":J29_3_2" index="2" speed="12.58" length="12.16" shape="1117.84,-24.31 1120.29,-26.01 1122.17,-26.93 1124.22,-27.31 1127.20,-27.38"/>
    </edge>
    <edge id=":J3_0" function="internal">
        <lane id=":J3_0_0" index="0" speed="6.51" length="9.03" shape="141.63,20.24 144.07,19.89 145.82,18.84 146.87,17.09 147.22,14.63"/>
        <lane id=":J3_0_1" index="1" speed="7.33" length="11.71" shape="141.63,20.24 145.47,19.89 148.22,18.84 149.87,17.09 150.42,14.64"/>
    </edge>
    <edge id=":J3_2" function="internal">
        <lane id=":J3_2_0" index="0" speed="13.89" length="14.35" shape="141.63,20.24 155.99,20.25"/>
        <lane id=":J3_2_1" index="1" speed="13.89" length="14.35" shape="141.63,23.44 155.98,23.45"/>
    </edge>
    <edge id=":J31_0" function="internal">
        <lane id=":J31_0_0" index="0" speed="13.89" length="0.70" shape="575.23,-160.17 575.44,-160.21 575.58,-160.23 575.72,-160.22 575.92,-160.18"/>
    </edge>
    <edge id=":J33_0" function="internal">
        <lane id=":J33_0_0" index="0" speed="13.89" length="0.75" shape="643.95,115.50 644.17,115.54 644.33,115.55 644.48,115.53 644.70,115.48"/>
    </edge>
    <edge id=":J4_0" function="internal">
        <lane id=":J4_0_0" index="0" speed="13.89" length="14.40" shape="156.17,-58.86 141.77,-58.78"/>
        <lane id=":J4_0_1" index="1" speed="13.89" length="14.40" shape="156.15,-62.06 141.75,-61.98"/>
    </edge>
    <edge id=":J4_2" function="internal">
        <lane id=":J4_2_0" index="0" speed="6.49" length="9.03" shape="147.37,-53.20 147.02,-55.65 145.97,-57.40 144.22,-58.44 141.77,-58.78"/>
        <lane id=":J4_2_1" index="1" speed="7.99" length="14.22" shape="150.57,-53.19 150.02,-57.05 148.37,-59.81 145.61,-61.45 141.75,-61.98"/>
    </edge>
    <edge id=":J6_0" function="internal">
        <lane id=":J6_0_0" index="0" speed="6.57" length="8.98" shape="63.12,-58.30 60.75,-57.93 59.03,-56.87 57.96,-55.10 57.55,-52.64"/>
        <lane id=":J6_0_1" index="1" speed="7.38" length="11.60" shape="63.12,-58.30 59.35,-57.93 56.63,-56.88 54.96,-55.15 54.35,-52.74"/>
    </edge>
    <edge id=":J6_2" function="internal">
        <lane id=":J6_2_0" index="0" speed="13.89" length="14.09" shape="63.12,-58.30 49.02,-58.26"/>
        <lane id=":J6_2_1" index="1" speed="13.89" length="14.09" shape="63.10,-61.50 49.04,-61.46"/>
    </edge>
    <edge id=":J7_0" function="internal">
        <lane id=":J7_0_0" index="0" speed="6.44" length="9.03" shape="-49.91,-58.78 -52.37,-58.44 -54.11,-57.39 -55.12,-55.64 -55.42,-53.17"/>
        <lane id=":J7_0_1" index="1" speed="7.26" length="11.78" shape="-49.91,-58.78 -53.77,-58.45 -56.51,-57.38 -58.12,-55.60 -58.62,-53.09"/>
    </edge>
    <edge id=":J7_2" function="internal">
        <lane id=":J7_2_0" index="0" speed="13.89" length="14.43" shape="-49.91,-58.78 -64.32,-58.83"/>
        <lane id=":J7_2_1" index="1" speed="13.89" length="14.43" shape="-49.89,-61.98 -64.33,-62.03"/>
    </edge>
    <edge id=":J9_0" function="internal">
        <lane id=":J9_0_0" index="0" speed="6.54" length="9.20" shape="242.08,20.66 244.53,20.31 246.28,19.23 247.33,17.41 247.67,14.87"/>
        <lane id=":J9_0_1" index="1" speed="7.35" length="11.89" shape="242.08,20.66 245.93,20.31 248.69,19.23 250.33,17.41 250.87,14.86"/>
    </edge>
    <edge id=":J9_2" function="internal">
        <lane id=":J9_2_0" index="0" speed="13.89" length="15.31" shape="242.08,20.66 246.76,20.58 249.99,20.54 253.16,20.88 257.67,21.99"/>
        <lane id=":J9_2_1" index="1" speed="13.89" length="15.31" shape="242.06,23.86 246.48,23.78 249.54,23.72 252.53,24.03 256.79,25.06"/>
    </edge>

    <edge id="E0" from="J0" to="J1" priority="-1">
        <lane id="E0_0" index="0" speed="13.89" length="94.81" shape="-48.19,19.44 46.62,20.32"/>
        <lane id="E0_1" index="1" speed="13.89" length="94.81" shape="-48.22,22.64 46.59,23.52"/>
    </edge>
    <edge id="E1" from="J1" to="J3" priority="-1">
        <lane id="E1_0" index="0" speed="13.89" length="80.59" shape="61.04,20.35 141.63,20.24"/>
        <lane id="E1_1" index="1" speed="13.89" length="80.59" shape="61.04,23.55 141.63,23.44"/>
    </edge>
    <edge id="E10" from="J9" to="J11" priority="-1">
        <lane id="E10_0" index="0" speed="13.89" length="121.25" shape="257.67,21.99 374.30,55.10"/>
        <lane id="E10_1" index="1" speed="13.89" length="121.25" shape="256.79,25.06 373.43,58.18"/>
    </edge>
    <edge id="E11" from="J11" to="J13" priority="-1">
        <lane id="E11_0" index="0" speed="13.89" length="271.90" shape="402.43,57.56 674.03,71.89"/>
        <lane id="E11_1" index="1" speed="13.89" length="271.90" shape="402.42,60.76 673.86,75.08"/>
    </edge>
    <edge id="E12" from="J11" to="J14" priority="-1">
        <lane id="E12_0" index="0" speed="13.89" length="269.21" shape="402.43,56.17 671.63,55.16"/>
        <lane id="E12_1" index="1" speed="13.89" length="269.21" shape="402.43,59.37 671.64,58.36"/>
    </edge>
    <edge id="E15" from="J7" to="J12" priority="-1">
        <lane id="E15_0" index="0" speed="13.89" length="181.28" shape="-64.32,-58.83 -245.61,-58.31"/>
        <lane id="E15_1" index="1" speed="13.89" length="181.28" shape="-64.33,-62.03 -245.62,-61.51"/>
    </edge>
    <edge id="E16" from="J13" to="J18" priority="-1">
        <lane id="E16_0" index="0" speed="13.89" length="100.35" shape="674.23,71.88 774.31,64.54"/>
        <lane id="E16_1" index="1" speed="13.89" length="100.35" shape="674.47,75.07 774.54,67.73"/>
    </edge>
    <edge id="E17" from="J14" to="J18" priority="-1">
        <lane id="E17_0" index="0" speed="13.89" length="102.57" shape="671.77,55.16 774.31,57.75"/>
        <lane id="E17_1" index="1" speed="13.89" length="102.57" shape="671.69,58.36 774.22,60.95"/>
    </edge>
    <edge id="E18" from="J18" to="J19" priority="-1">
        <lane id="E18_0" index="0" speed="13.89" length="149.23" shape="847.17,56.26 996.39,54.92"/>
        <lane id="E18_1" index="1" speed="13.89" length="149.23" shape="847.20,59.46 996.42,58.12"/>
        <lane id="E18_2" index="2" speed="13.89" length="149.23" shape="847.23,62.66 996.45,61.32"/>
    </edge>
    <edge id="E19" from="J10" to="J21" priority="-1">
        <lane id="E19_0" index="0" speed="13.89" length="118.03" shape="254.17,-70.10 364.05,-113.19"/>
        <lane id="E19_1" index="1" speed="13.89" length="118.03" shape="255.34,-67.12 365.22,-110.21"/>
    </edge>
    <edge id="E2" from="J3" to="J4" priority="-1">
        <lane id="E2_0" index="0" speed="13.89" length="67.83" shape="147.22,14.63 147.37,-53.20"/>
        <lane id="E2_1" index="1" speed="13.89" length="67.83" shape="150.42,14.64 150.57,-53.19"/>
    </edge>
    <edge id="E20" from="J21" to="J22" priority="-1">
        <lane id="E20_0" index="0" speed="13.89" length="225.75" shape="420.17,-108.82 644.26,-81.42"/>
        <lane id="E20_1" index="1" speed="13.89" length="225.75" shape="419.78,-105.65 643.87,-78.25"/>
    </edge>
    <edge id="E21" from="J21" to="J23" priority="-1">
        <lane id="E21_0" index="0" speed="13.89" length="224.88" shape="420.32,-115.76 645.18,-119.20"/>
        <lane id="E21_1" index="1" speed="13.89" length="224.88" shape="420.37,-112.56 645.23,-116.00"/>
    </edge>
    <edge id="E22" from="J22" to="J25" priority="-1">
        <lane id="E22_0" index="0" speed="13.89" length="152.76" shape="644.70,-81.43 795.61,-105.12"/>
        <lane id="E22_1" index="1" speed="13.89" length="152.76" shape="645.19,-78.27 796.11,-101.96"/>
    </edge>
    <edge id="E23" from="J23" to="J25" priority="-1">
        <lane id="E23_0" index="0" speed="13.89" length="141.91" shape="645.47,-119.19 787.24,-112.69"/>
        <lane id="E23_1" index="1" speed="13.89" length="141.91" shape="645.32,-116.00 787.09,-109.49"/>
    </edge>
    <edge id="E24" from="J25" to="J26" priority="-1">
        <lane id="E24_0" index="0" speed="13.89" length="208.72" shape="803.98,-114.05 1012.70,-112.60"/>
        <lane id="E24_1" index="1" speed="13.89" length="208.72" shape="803.96,-110.85 1012.67,-109.40"/>
        <lane id="E24_2" index="2" speed="13.89" length="208.72" shape="803.94,-107.65 1012.65,-106.20"/>
    </edge>
    <edge id="E25" from="J19" to="J29" priority="-1">
        <lane id="E25_0" index="0" speed="13.89" length="143.93" shape="997.31,54.62 1114.10,-29.51"/>
        <lane id="E25_1" index="1" speed="13.89" length="143.93" shape="999.18,57.21 1115.97,-26.91"/>
        <lane id="E25_2" index="2" speed="13.89" length="143.93" shape="1001.05,59.81 1117.84,-24.31"/>
    </edge>
    <edge id="E26" from="J26" to="J29" priority="-1">
        <lane id="E26_0" index="0" speed="13.89" length="123.67" shape="1017.30,-111.10 1117.82,-39.06"/>
        <lane id="E26_1" index="1" speed="13.89" length="123.67" shape="1015.44,-108.50 1115.95,-36.46"/>
        <lane id="E26_2" index="2" speed="13.89" length="123.67" shape="1013.57,-105.90 1114.09,-33.86"/>
    </edge>
    <edge id="E27" from="J29" to="J30" priority="-1">
        <lane id="E27_0" index="0" speed="13.89" length="265.33" shape="1127.20,-33.78 1392.53,-33.78"/>
        <lane id="E27_1" index="1" speed="13.89" length="265.33" shape="1127.20,-30.58 1392.53,-30.58"/>
        <lane id="E27_2" index="2" speed="13.89" length="265.33" shape="1127.20,-27.38 1392.53,-27.38"/>
    </edge>
    <edge id="E28" from="J21" to="J31" priority="-1">
        <lane id="E28_0" index="0" speed="13.89" length="177.76" shape="402.19,-119.50 575.23,-160.17"/>
    </edge>
    <edge id="E29" from="J31" to="J25" priority="-1">
        <lane id="E29_0" index="0" speed="13.89" length="216.25" shape="575.92,-160.18 787.71,-116.48"/>
    </edge>
    <edge id="E3" from="J4" to="J6" priority="-1">
        <lane id="E3_0" index="0" speed="13.89" length="78.64" shape="141.77,-58.78 63.12,-58.30"/>
        <lane id="E3_1" index="1" speed="13.89" length="78.64" shape="141.75,-61.98 63.10,-61.50"/>
    </edge>
    <edge id="E30" from="J11" to="J33" priority="-1">
        <lane id="E30_0" index="0" speed="13.89" length="247.25" shape="402.01,64.54 643.95,115.50"/>
    </edge>
    <edge id="E31" from="J33" to="J18" priority="-1">
        <lane id="E31_0" index="0" speed="13.89" length="184.10" shape="644.70,115.48 822.61,68.13"/>
    </edge>
    <edge id="E32" from="J12" to="J24" priority="-1">
        <lane id="E32_0" index="0" speed="13.89" length="56.49" shape="-247.20,-56.71 -247.32,-0.22"/>
        <lane id="E32_1" index="1" speed="13.89" length="56.49" shape="-250.40,-56.72 -250.52,-0.23"/>
    </edge>
    <edge id="E32.133" from="J17" to="J15" priority="-1">
        <lane id="E32.133_0" index="0" speed="13.89" length="77.97" shape="-247.48,74.10 -247.64,152.07"/>
        <lane id="E32.133_1" index="1" speed="13.89" length="77.97" shape="-250.68,74.09 -250.84,152.07"/>
    </edge>
    <edge id="E32.72" from="J24" to="J17" priority="-1">
        <lane id="E32.72_0" index="0" speed="13.89" length="46.50" shape="-247.35,13.63 -247.45,60.13"/>
        <lane id="E32.72_1" index="1" speed="13.89" length="46.50" shape="-250.55,13.62 -250.65,60.12"/>
    </edge>
    <edge id="E33" from="J15" to="J16" priority="-1">
        <lane id="E33_0" index="0" speed="13.89" length="176.94" shape="-246.06,153.68 -69.14,156.40"/>
        <lane id="E33_1" index="1" speed="13.89" length="176.94" shape="-246.11,156.88 -69.19,159.60"/>
    </edge>
    <edge id="E34" from="J16" to="J20" priority="-1">
        <lane id="E34_0" index="0" speed="13.89" length="70.11" shape="-67.52,154.84 -66.08,84.74"/>
        <lane id="E34_1" index="1" speed="13.89" length="70.11" shape="-64.32,154.90 -62.88,84.81"/>
    </edge>
    <edge id="E34.80" from="J20" to="J0" priority="-1" shape="-61.20,81.08 -60.23,33.66 -58.28,24.15">
        <lane id="E34.80_0" index="0" speed="13.89" length="42.40" shape="-65.78,70.34 -65.02,33.12 -63.92,27.77"/>
        <lane id="E34.80_1" index="1" speed="13.89" length="42.40" shape="-62.58,70.40 -61.83,33.48 -60.79,28.41"/>
    </edge>
    <edge id="E35" from="J17" to="J20" priority="-1">
        <lane id="E35_0" index="0" speed="13.89" length="170.56" shape="-241.82,65.75 -71.55,75.67"/>
        <lane id="E35_1" index="1" speed="13.89" length="170.56" shape="-242.00,68.95 -71.74,78.86"/>
    </edge>
    <edge id="E36" from="J24" to="J0" priority="-1">
        <lane id="E36_0" index="0" speed="13.89" length="173.97" shape="-241.67,5.41 -68.20,18.58"/>
        <lane id="E36_1" index="1" speed="13.89" length="173.97" shape="-241.92,8.60 -68.45,21.77"/>
    </edge>
    <edge id="E4" from="J6" to="J7" priority="-1">
        <lane id="E4_0" index="0" speed="13.89" length="98.93" shape="49.02,-58.26 -49.91,-58.78"/>
        <lane id="E4_1" index="1" speed="13.89" length="98.93" shape="49.04,-61.46 -49.89,-61.98"/>
    </edge>
    <edge id="E5" from="J7" to="J0" priority="-1">
        <lane id="E5_0" index="0" speed="13.89" length="66.92" shape="-55.42,-53.17 -53.74,13.74"/>
        <lane id="E5_1" index="1" speed="13.89" length="66.92" shape="-58.62,-53.09 -56.94,13.82"/>
    </edge>
    <edge id="E6" from="J6" to="J1" priority="-1">
        <lane id="E6_0" index="0" speed="13.89" length="67.38" shape="57.55,-52.64 55.55,14.71"/>
        <lane id="E6_1" index="1" speed="13.89" length="67.38" shape="54.35,-52.74 52.35,14.61"/>
    </edge>
    <edge id="E7" from="J3" to="J9" priority="-1">
        <lane id="E7_0" index="0" speed="13.89" length="86.09" shape="155.99,20.25 242.08,20.66"/>
        <lane id="E7_1" index="1" speed="13.89" length="86.09" shape="155.98,23.45 242.06,23.86"/>
    </edge>
    <edge id="E8" from="J9" to="J10" priority="-1">
        <lane id="E8_0" index="0" speed="13.89" length="68.61" shape="247.67,14.87 247.44,-53.74"/>
        <lane id="E8_1" index="1" speed="13.89" length="68.61" shape="250.87,14.86 250.64,-53.75"/>
    </edge>
    <edge id="E9" from="J10" to="J4" priority="-1">
        <lane id="E9_0" index="0" speed="13.89" length="85.65" shape="241.81,-59.31 156.17,-58.86"/>
        <lane id="E9_1" index="1" speed="13.89" length="85.65" shape="241.80,-62.51 156.15,-62.06"/>
    </edge>

    <tlLogic id="J0" type="static" programID="0" offset="0">
        <phase duration="27" state="GGrrrr"/>
        <phase duration="3"  state="yyrrrr"/>
        <phase duration="27" state="rrrrGG"/>
        <phase duration="3"  state="rrrryy"/>
        <phase duration="27" state="rrGGrr"/>
        <phase duration="3"  state="rryyrr"/>
    </tlLogic>
    <tlLogic id="J1" type="static" programID="0" offset="0">
        <phase duration="42" state="GGrr"/>
        <phase duration="3"  state="yyrr"/>
        <phase duration="42" state="rrGG"/>
        <phase duration="3"  state="rryy"/>
    </tlLogic>
    <tlLogic id="J17" type="static" programID="0" offset="0">
        <phase duration="82" state="GGGG"/>
        <phase duration="3"  state="yyyy"/>
        <phase duration="5"  state="rrrr"/>
    </tlLogic>
    <tlLogic id="J20" type="static" programID="0" offset="0">
        <phase duration="42" state="GGrr"/>
        <phase duration="3"  state="yyrr"/>
        <phase duration="42" state="rrGG"/>
        <phase duration="3"  state="rryy"/>
    </tlLogic>
    <tlLogic id="J24" type="static" programID="0" offset="0">
        <phase duration="82" state="GGGG"/>
        <phase duration="3"  state="yyyy"/>
        <phase duration="5"  state="rrrr"/>
    </tlLogic>
    <tlLogic id="J3" type="static" programID="0" offset="0">
        <phase duration="82" state="GGGG"/>
        <phase duration="3"  state="yyyy"/>
        <phase duration="5"  state="rrrr"/>
    </tlLogic>
    <tlLogic id="J4" type="static" programID="0" offset="0">
        <phase duration="42" state="GGrr"/>
        <phase duration="3"  state="yyrr"/>
        <phase duration="42" state="rrGG"/>
        <phase duration="3"  state="rryy"/>
    </tlLogic>
    <tlLogic id="J6" type="static" programID="0" offset="0">
        <phase duration="82" state="GGGG"/>
        <phase duration="3"  state="yyyy"/>
        <phase duration="5"  state="rrrr"/>
    </tlLogic>
    <tlLogic id="J7" type="static" programID="0" offset="0">
        <phase duration="82" state="GGGG"/>
        <phase duration="3"  state="yyyy"/>
        <phase duration="5"  state="rrrr"/>
    </tlLogic>

    <junction id="J0" type="traffic_light" x="-58.28" y="24.15" incLanes="E5_0 E5_1 E36_0 E36_1 E34.80_0 E34.80_1" intLanes=":J0_0_0 :J0_0_1 :J0_2_0 :J0_2_1 :J0_4_0 :J0_4_1" shape="-48.23,24.24 -48.17,17.84 -50.33,17.37 -51.10,16.79 -51.65,15.98 -52.00,14.95 -52.14,13.70 -58.54,13.86 -59.56,15.92 -60.88,16.57 -62.74,16.96 -65.14,17.10 -68.08,16.99 -68.57,23.37 -66.51,23.95 -65.87,24.53 -65.49,25.31 -65.36,26.28 -65.49,27.45 -59.22,28.73 -57.58,26.20 -56.00,25.32 -53.92,24.70 -51.33,24.34">
        <request index="0" response="000000" foes="111100" cont="0"/>