<?xml version="1.0" encoding="UTF-8"?>

<!-- generated on 2025-11-19T14:14:39.808164+01:00 by Eclipse SUMO netedit 1.25.0
-->

<additional xmlns:xsi="http://www.w3.org/2001/XMLSchema-instance" xsi:noNamespaceSchemaLocation="http://sumo.dlr.de/xsd/additional_file.xsd">
    <!-- StoppingPlaces -->
    <busStop id="bs_0" lane="E1_0" startPos="27.42" endPos="37.42"/>
    <busStop id="bs_1" lane="E0_0" startPos="28.05" endPos="38.05"/>
    <busStop id="bs_2" lane="E7_0" startPos="13.14" endPos="23.14"/>
</additional>
